/*--------------------------------*- C++ -*----------------------------------*\
| =========                 |                                                 |
| \\      /  F ield         | OpenFOAM: The Open Source CFD Toolbox           |
|  \\    /   O peration     | Version:  2.1.0                                 |
|   \\  /    A nd           | Web:      www.OpenFOAM.org                      |
|    \\/     M anipulation  |                                                 |
\*---------------------------------------------------------------------------*/
FoamFile
{
    version     2.0;
    format      ascii;
    class       dictionary;
    location    "system";
    object      controlDict;
}
// * * * * * * * * * * * * * * * * * * * * * * * * * * * * * * * * * * * * * //

application     reactingConstLewisFoam;

startFrom       startTime;
startTime       0;

stopAt          endTime;
endTime         5e-2;

deltaT          1e-7;

writeControl    adjustableRunTime;

writeInterval   1e-3;
purgeWrite      0;

writeFormat     ascii;
writePrecision  12;
writeCompression off;

timeFormat      general;
timePrecision   6;

runTimeModifiable true;

adjustTimeStep  yes; 
maxCo           0.1;

libs
(
    libamrDynamicFvMesh.so
    libamrIndicators.so
    libamrDynamicMesh.so
);


functions
{
}

// ************************************************************************* //
