/*--------------------------------*- C++ -*----------------------------------*\
| =========                 |                                                 |
| \\      /  F ield         | OpenFOAM: The Open Source CFD Toolbox           |
|  \\    /   O peration     | Version:  2012                                  |
|   \\  /    A nd           | Website:  www.openfoam.com                      |
|    \\/     M anipulation  |                                                 |
\*---------------------------------------------------------------------------*/
FoamFile
{
    version     2.0;
    format      ascii;
    class       polyBoundaryMesh;
    location    "constant/polyMesh";
    object      boundary;
}
// * * * * * * * * * * * * * * * * * * * * * * * * * * * * * * * * * * * * * //

3
(
    movingWall
    {
        type            wall;
        inGroups        1(wall);
        nFaces          100;
        startFace       5400;
    }
    fixedWalls
    {
        type            wall;
        inGroups        1(wall);
        nFaces          300;
        startFace       5500;
    }
    frontAndBack
    {
        type            patch;
        nFaces          800;
        startFace       5800;
    }
)

// ************************************************************************* //
