/*--------------------------------*- C++ -*----------------------------------*\
| =========                 |                                                 |
| \\      /  F ield         | OpenFOAM: The Open Source CFD Toolbox           |
|  \\    /   O peration     | Version:  2.3.0                                 |
|   \\  /    A nd           | Web:      www.OpenFOAM.org                      |
|    \\/     M anipulation  |                                                 |
\*---------------------------------------------------------------------------*/
FoamFile
{
    version     2.0;
    format      ascii;
    class       dictionary;
    location    "system";
    object      controlDict;
}
// * * * * * * * * * * * * * * * * * * * * * * * * * * * * * * * * * * * * * //

application	reactingDyMFoam;

startFrom       latestTime;

startTime       0; 

stopAt          endTime;

endTime         0.2; 

deltaT          1e-08;

writeControl    adjustableRunTime;

writeInterval   1e-2;

purgeWrite      0;

writeFormat     ascii;

writePrecision  8;

writeCompression compressed;

timeFormat      general;

timePrecision   8;

runTimeModifiable yes;

adjustTimeStep  yes;

maxCo           0.1;

libs
(
    libamrDynamicFvMesh.so
    libamrIndicators.so
    libamrDynamicMesh.so
);

functions{}


// ************************************************************************* //
