/*--------------------------------*- C++ -*----------------------------------*\
| =========                 |                                                 |
| \\      /  F ield         | OpenFOAM: The Open Source CFD Toolbox           |
|  \\    /   O peration     | Version:  2.3.0                                 |
|   \\  /    A nd           | Web:      www.OpenFOAM.org                      |
|    \\/     M anipulation  |                                                 |
\*---------------------------------------------------------------------------*/
FoamFile
{
    version     2.0;
    format      ascii;
    class       dictionary;
    location    "system";
    object      fvSchemes;
}
// * * * * * * * * * * * * * * * * * * * * * * * * * * * * * * * * * * * * * //

ddtSchemes
{
    default         	backward;
}

gradSchemes
{
    default         	Gauss linear; 
}

divSchemes
{
    default             Gauss linear;
    div(phi,U)          Gauss linear;
    div(phi,hs)         Gauss linear;
    div(phi,Yi_h)       Gauss limitedLinear 1;
    div(phi,K)      	Gauss linear;
    div((mu*dev2(T(grad(U))))) Gauss linear;
    default     	Gauss linear;
}

laplacianSchemes
{
    default		Gauss linear corrected;
}

interpolationSchemes
{
    default         	linear;
}

snGradSchemes
{
    default        	corrected;
}

fluxRequired
{
    default         	yes;
    p               	;
}


// ************************************************************************* //
