/*--------------------------------*- C++ -*----------------------------------*\
| =========                 |                                                 |
| \\      /  F ield         | foam-extend: Open Source CFD                    |
|  \\    /   O peration     | Version:     5.0                                |
|   \\  /    A nd           | Web:         http://www.foam-extend.org         |
|    \\/     M anipulation  |                                                 |
\*---------------------------------------------------------------------------*/
FoamFile
{
    version     2.0;
    format      ascii;
    class       dictionary;
    location    "constant/polyMesh";
    object      meshMetaDict;
}
// * * * * * * * * * * * * * * * * * * * * * * * * * * * * * * * * * * * * * //

surfaceFile     "surf0.stl";

surfaceMeta
{
    nPoints         1202;
    nFacets         2400;
    nPatches        1;
    nFeatureEdges   0;
    patches
    {
        VisualizationToolkitgeneratedSLAFile
        {
            type            patch;
            nFacets         2400;
        }
    }
    pointSubsets
    {
    }
    facetSubsets
    {
    }
    featureEdgeSubsets
    {
    }
}

lastStep        meshOptimisation;

completedSteps  16 ( start start templateGeneration templateGeneration surfaceTopology surfaceTopology surfaceProjection surfaceProjection patchAssignment patchAssignment edgeExtraction edgeExtraction boundaryLayerGeneration boundaryLayerGeneration meshOptimisation meshOptimisation );
