/*--------------------------------*- C++ -*----------------------------------*\
| =========                 |                                                 |
| \\      /  F ield         | foam-extend: Open Source CFD                    |
|  \\    /   O peration     | Version:     4.0                                |
|   \\  /    A nd           | Web:         http://www.foam-extend.org         |
|    \\/     M anipulation  |                                                 |
\*---------------------------------------------------------------------------*/
FoamFile
{
    version     2.0;
    format      binary;
    class       dictionary;
    location    "system";
    object      fvSchemes;
}
// * * * * * * * * * * * * * * * * * * * * * * * * * * * * * * * * * * * * * //

ddtSchemes
{
    default         Euler;
}

gradSchemes
{
    default         leastSquares;
}

divSchemes
{
    default         Gauss linear;

    div(phi,U)      Gauss linear;
    div(phi,Yi_h)   Gauss Gamma 0.2;
    div(phi,hs)     Gauss Gamma 0.2;
    div(J_k,hs_k)   Gauss Gamma 0.2;
    div(phi,K)      Gauss limitedLinear 1;
    div(phiU,p)     Gauss limitedLinear 1;
    div(phid,p)     Gauss limitedLinear 1;
    div(((rho*nuEff)*dev2(T(grad(U))))) Gauss linear;
}

laplacianSchemes
{
    default         Gauss linear orthogonal;
}

interpolationSchemes
{
    default         linear;
}

snGradSchemes
{
    default	    orthogonal;
}


// ************************************************************************* //
